LIG
     RDKit          3D

 28 29  0  0  0  0  0  0  0  0999 V2000
   11.9520   16.3990   22.1750 N   0  0  0  0  0  0  0  0  0  0  0  0
   12.0680   15.2850   22.4210 C   0  0  0  0  0  0  0  0  0  0  0  0
   12.1720   13.8800   22.7600 C   0  0  0  0  0  0  0  0  0  0  0  0
   10.8990   13.4420   23.4960 C   0  0  0  0  0  0  0  0  0  0  0  0
   10.5860   14.0590   24.5120 O   0  0  0  0  0  0  0  0  0  0  0  0
   10.1590   12.3680   23.0300 N   0  0  0  0  0  0  0  0  0  0  0  0
    9.1440   11.7740   23.8150 C   0  0  0  0  0  0  0  0  0  0  0  0
    8.1940   12.5080   24.5240 C   0  0  0  0  0  0  0  0  0  0  0  0
    7.2330   11.8630   25.2910 C   0  0  0  0  0  0  0  0  0  0  0  0
    7.2470   10.4920   25.3260 C   0  0  0  0  0  0  0  0  0  0  0  0
    8.1390    9.7430   24.6530 N   0  0  0  0  0  0  0  0  0  0  0  0
    9.0640   10.3920   23.9170 C   0  0  0  0  0  0  0  0  0  0  0  0
   13.3790   13.6040   23.6250 C   0  0  0  0  0  0  0  0  0  0  0  0
   14.5280   13.0320   23.1090 C   0  0  0  0  0  0  0  0  0  0  0  0
   15.5700   12.7310   23.9560 C   0  0  0  0  0  0  0  0  0  0  0  0
   15.4580   13.0240   25.3020 C   0  0  0  0  0  0  0  0  0  0  0  0
   16.4240   12.7490   26.1830 F   0  0  0  0  0  0  0  0  0  0  0  0
   14.3200   13.6270   25.7350 C   0  0  0  0  0  0  0  0  0  0  0  0
   13.2730   13.9230   24.9320 N   0  0  0  0  0  0  0  0  0  0  0  0
   12.2370   13.2800   21.8400 H   0  0  0  0  0  0  0  0  0  0  0  0
   10.6640   11.7390   22.3920 H   0  0  0  0  0  0  0  0  0  0  0  0
    8.1780   13.5920   24.5040 H   0  0  0  0  0  0  0  0  0  0  0  0
    6.4920   12.4240   25.8480 H   0  0  0  0  0  0  0  0  0  0  0  0
    6.5200    9.9350   25.9100 H   0  0  0  0  0  0  0  0  0  0  0  0
    9.7630    9.7380   23.3970 H   0  0  0  0  0  0  0  0  0  0  0  0
   14.6170   12.7980   22.0520 H   0  0  0  0  0  0  0  0  0  0  0  0
   16.4540   12.2670   23.5690 H   0  0  0  0  0  0  0  0  0  0  0  0
   14.2070   13.8900   26.7820 H   0  0  0  0  0  0  0  0  0  0  0  0
  1  2  3  0
  2  3  1  0
  3  4  1  0
  4  5  2  0
  4  6  1  0
  6  7  1  0
  7  8  2  0
  8  9  1  0
  9 10  2  0
 10 11  1  0
 11 12  2  0
  3 13  1  0
 13 14  2  0
 14 15  1  0
 15 16  2  0
 16 17  1  0
 16 18  1  0
 18 19  2  0
 12  7  1  0
 19 13  1  0
  3 20  1  0
  6 21  1  0
  8 22  1  0
  9 23  1  0
 10 24  1  0
 12 25  1  0
 14 26  1  0
 15 27  1  0
 18 28  1  0
A    1
 N1 
A    2
 C1 
A    3
 C2 
A    4
 C3 
A    5
 O1 
A    6
 N2 
A    7
 C4 
A    8
 C5 
A    9
 C6 
A   10
 C7 
A   11
 N3 
A   12
 C8 
A   13
 C9 
A   14
 C10
A   15
 C11
A   16
 C12
A   17
 F1 
A   18
 C13
A   19
 N4 
A   20
 H1 
A   21
 H2 
A   22
 H3 
A   23
 H4 
A   24
 H5 
A   25
 H6 
A   26
 H7 
A   27
 H8 
A   28
 H9 
M  END
>  <HA>  (1) 
19

>  <HBD>  (1) 
1

>  <HBA>  (1) 
4

>  <MW>  (1) 
256.076039128

>  <TPSA>  (1) 
78.67

>  <LogP>  (1) 
1.8615799999999998

>  <RBs>  (1) 
3

>  <G_bound>  (1) 
-5.341665876892273

>  <G_unbound>  (1) 
1.0331612320934163

>  <deltaG>  (1) 
-6.37482710898569

>  <comRMSD>  (1) 
0.5376837529457424

>  <substructure_overlap_check>  (1) 
True

>  <energy_ratio_check>  (1) 
True

>  <const_energy/unconst_energy>  (1) 
1.536178542491884

>  <sucos>  (1) 
0.48947179376302835

>  <sucos_check>  (1) 
False

>  <interactions>  (1) 
Hydrophobic_CYS-110,Hydrophobic_TYR-89,HBDonor_SER-125,Hydrophobic_LEU-22,Hydrophobic_PRO-107

>  <total_num_ints>  (1) 
5

>  <total_num_ints_nonhyd>  (1) 
1

>  <num_uniq_frag_ints>  (1) 
7

>  <num_repl_uniq_ints>  (1) 
2

>  <num_uniq_ints_lost>  (1) 
5

>  <num_new_uniq_ints>  (1) 
3

>  <int_check>  (1) 
True

$$$$
