A71EV2A-x0310_0A
     RDKit          3D

 14 14  0  0  0  0  0  0  0  0999 V2000
    8.1290    9.5440   24.1720 N   0  0  0  0  0  0  0  0  0  0  0  0
   10.0090    8.9300   22.7290 C   0  0  0  0  0  0  0  0  0  0  0  0
   10.6820   13.4740   24.4490 O   0  0  0  0  0  0  0  0  0  0  0  0
    9.1460    9.9310   23.4240 C   0  0  0  0  0  0  0  0  0  0  0  0
    6.4920   10.5980   25.6290 C   0  0  0  0  0  0  0  0  0  0  0  0
    8.2190   11.7840   24.2520 C   0  0  0  0  0  0  0  0  0  0  0  0
    7.8210   13.1740   24.6190 C   0  0  0  0  0  0  0  0  0  0  0  0
    9.2300   11.3420   23.4550 C   0  0  0  0  0  0  0  0  0  0  0  0
   10.8950   13.0800   23.3170 C   0  0  0  0  0  0  0  0  0  0  0  0
   11.9340   13.7370   22.4300 C   0  0  0  0  0  0  0  0  0  0  0  0
   12.1150   15.1390   22.7960 C   0  0  0  0  0  0  0  0  0  0  0  0
    7.5880   10.6890   24.6750 N   0  0  0  0  0  0  0  0  0  0  0  0
   10.1940   12.0640   22.7600 N   0  0  0  0  0  0  0  0  0  0  0  0
   12.1800   16.2380   23.0790 N   0  0  0  0  0  0  0  0  0  0  0  0
  4  2  1  0
  4  1  2  0
  7  6  1  0
  8  4  1  0
  8  6  2  0
  9  3  2  0
 10  9  1  0
 11 10  1  0
 12  5  1  0
 12  1  1  0
 12  6  1  0
 13  9  1  0
 13  8  1  0
 14 11  3  0
M  END
>  <Unnamed: 0>  (1) 
21

>  <site_name>  (1) 
1

>  <pdb_entry>  (1) 
nan

>  <C110_distance>  (1) 
3.564319

>  <H21_distance>  (1) 
3.62153

>  <D39_distance>  (1) 
5.449668

>  <Y89_distance>  (1) 
2.438545

>  <Y90_distance>  (1) 
5.045044

>  <P2prime_distance>  (1) 
3.359922

>  <P1prime_distance>  (1) 
3.289648

>  <P1_distance>  (1) 
0.863155

>  <P2_distance>  (1) 
0.863155

>  <RMSD_A71EV2A-x0152_0A>  (1) 
0.185859

>  <RMSD_A71EV2A-x0395_1A>  (1) 
0.26

>  <Y89.OH-S125.O_distance>  (1) 
11.249888

$$$$
